LAND_INDICATOR = (('RM','Rio Mannu'),
		  ('TH','Thau'),
		  ('CH','Chiba'),
		  ('GA','Gaza'),
		  ('KO','Kocaeli'),
		  ('NO','Noce'),
		  ('NI','Nile'),
		  ('RD','Riu di Costara'),
		  ('MA','Maso Maiano'))

HYDROLOGICAL_INDICATOR = (('PRC','PRC'),
		('ETP','ETP'),
		('ETR','ETR'),
		('RUN','RUN'),
		('SWC','SWC'),
		('SWE','SWE'),
		('DIS','DIS'),
		('FDC','FDC'),
		('VDF','VDF'),
		('CLD','CLD'),
		('LF7','LF7'),
		('MDF','MDF'))

TIME_HORIZON = (('REF','1971-2000'),('FUT','2041-2070'))

HYDROLOGICAL_MODEL = (('WAS','WASIM'),
		('CAT','CATHY'),
		('TRI','TRIBS'),
		('GEO','GEOTRANS'),
		('PRO','PROMET'),
		('MGR','MGROWA'),
		('SWA','SWAT'),
		('MOD','MODFLOW'),
		('AQU','AQUACROP'),
		('MIK','MIKE3'),
		('COD','CODESA'))

CLIMATE_FORCING = (('ERC','ECHAM-5 RCA'),
		('ERM','ECHAM-5 RACMO'),
		('ERE','ECHAM-5 REMO'),
		('HRC','HadCM3 RCA'))

CLIMATE_DATA_PROCESSING = (('1','BDM'),
		('2','BDB'),
		('3','BOX'),
		('4','NOX'),
		('5','NDX'))

SPATIAL_SCALES = (('1KM','1000m'),
		('500','500m'),
		('250','250m'),
		('100','100m'),
		('50m','50m'))




